18

H                 -1.19200700    3.00430600    0.95175500
H                  0.81562500    2.20299700   -0.02689500
H                  2.01347100    2.54593500   -0.94582900
H                  2.33466100    0.39882100    0.02400900
H                  3.21119200   -0.47363600    0.95586000
H                 -2.33499900   -0.39889400   -0.02359700
H                 -3.21288700    0.47361900   -0.95420000
H                 -2.01330400   -2.54648800    0.94596200
H                 -0.81547100   -2.20352700    0.02691400
H                  1.51303700   -1.80670900   -0.02503000
H                  1.19176900   -3.00361300   -0.95331700
H                 -1.51269900    1.80668100    0.02420400
O                  2.65053000   -0.51590200    0.17915600
O                  0.87306900   -2.53249200   -0.18154200
O                 -1.76663700   -2.02399900    0.18084700
O                 -2.65078800    0.51586600   -0.17853000
O                  1.76695500    2.02391200   -0.18034500
O                 -0.87292600    2.53268000    0.18043500
